<?xml version="1.0" encoding="UTF-8"?>
<!DOCTYPE network SYSTEM "http://www.matsim.org/files/dtd/network_v2.dtd">
<network>

<!-- ====================================================================== -->

	<nodes>
		<node id="1003434433" x="-112.18573189999998" y="33.5384154" >
		</node>
		<node id="1003434435" x="-112.18640259999998" y="33.5389805" >
		</node>
		<node id="1003434482" x="-112.18650520000001" y="33.5388982" >
		</node>
		<node id="1003434485" x="-112.18583470000002" y="33.5383301" >
		</node>
		<node id="1006307168" x="-112.0999723" y="33.4688824" >
		</node>
		<node id="1006307190" x="-112.0999653" y="33.4705537" >
		</node>
		<node id="1006307202" x="-112.09996779999999" y="33.4714308" >
		</node>
		<node id="1006307220" x="-112.099971" y="33.4697259" >
		</node>
		<node id="1019363233" x="-112.0196203" y="33.420379" >
		</node>
		<node id="1019363235" x="-112.0192495" y="33.4204998" >
		</node>
		<node id="1019363236" x="-112.0174321" y="33.4177893" >
		</node>
		<node id="1019363237" x="-112.0171519" y="33.4179934" >
		</node>
		<node id="1055665448" x="-112.16645789999998" y="33.4625725" >
		</node>
		<node id="1055665449" x="-112.1523106" y="33.4617914" >
		</node>
		<node id="1055665457" x="-112.1501555" y="33.4616813" >
		</node>
		<node id="1055665603" x="-112.1514639" y="33.46173600000001" >
		</node>
		<node id="1060694788" x="-112.1349581" y="33.495407" >
		</node>
		<node id="1060695321" x="-112.1091595" y="33.473605" >
		</node>
		<node id="1060695558" x="-112.13379849999998" y="33.4946347" >
		</node>
		<node id="1060695598" x="-112.1477852" y="33.5062448" >
		</node>
		<node id="1060695605" x="-112.1386795" y="33.4985472" >
		</node>
		<node id="1060695738" x="-112.13474170000002" y="33.4954348" >
		</node>
		<node id="1065082679" x="-112.13371820000002" y="33.4943575" >
		</node>
		<node id="1065084310" x="-112.1691363" y="33.5245142" >
		</node>
		<node id="1065084376" x="-112.15618809999998" y="33.513492" >
		</node>
		<node id="1065085769" x="-112.1781163" y="33.5320426" >
		</node>
		<node id="1065092788" x="-112.12583980000001" y="33.4876755" >
		</node>
		<node id="1116347711" x="-111.98714930000001" y="33.445851" >
		</node>
		<node id="1116347895" x="-111.98710360000001" y="33.4465167" >
		</node>
		<node id="1128307306" x="-112.0693639" y="33.4620557" >
		</node>
		<node id="1146691843" x="-112.07906259999999" y="33.4471243" >
		</node>
		<node id="1146691849" x="-112.0790762" y="33.4482366" >
		</node>
		<node id="1146691851" x="-112.0763505" y="33.4503735" >
		</node>
		<node id="1146691868" x="-112.0776185" y="33.4493133" >
		</node>
		<node id="1146691877" x="-112.0776063" y="33.4471253" >
		</node>
		<node id="1146691890" x="-112.0778164" y="33.4471252" >
		</node>
		<node id="1146691894" x="-112.0778195" y="33.4482389" >
		</node>
		<node id="1146691896" x="-112.077691" y="33.4472582" >
		</node>
		<node id="1146691903" x="-112.07761720000002" y="33.450364" >
		</node>
		<node id="1146691915" x="-112.07630030000001" y="33.449309" >
		</node>
		<node id="1146691916" x="-112.0763505" y="33.451401" >
		</node>
		<node id="1146691926" x="-112.0788494" y="33.4471267" >
		</node>
		<node id="1146691935" x="-112.07783340000003" y="33.4514029" >
		</node>
		<node id="1146691947" x="-112.07771000000001" y="33.4483373" >
		</node>
		<node id="1146691948" x="-112.0751111" y="33.4472711" >
		</node>
		<node id="1146691949" x="-112.0751008" y="33.4483826" >
		</node>
		<node id="1146691952" x="-112.0788531" y="33.4482325" >
		</node>
		<node id="1146691965" x="-112.0775999" y="33.4482423" >
		</node>
		<node id="1146691967" x="-112.07762659999999" y="33.4514015" >
		</node>
		<node id="1146691968" x="-112.07783820000002" y="33.4493166" >
		</node>
		<node id="1146692828" x="-112.0753284" y="33.4482573" >
		</node>
		<node id="1146708386" x="-112.0790681" y="33.4493086" >
		</node>
		<node id="1146708390" x="-112.0764293" y="33.4493565" >
		</node>
		<node id="1146708392" x="-112.07652999999999" y="33.4503732" >
		</node>
		<node id="1146708393" x="-112.07771449999998" y="33.4494037" >
		</node>
		<node id="1146708396" x="-112.07651749999998" y="33.4493068" >
		</node>
		<node id="1146708397" x="-112.0765301" y="33.4514012" >
		</node>
		<node id="1146708398" x="-112.0793393" y="33.4493129" >
		</node>
		<node id="1158462938" x="-112.06507120000002" y="33.4318013" >
		</node>
		<node id="1158462976" x="-112.065046" y="33.432712800000004" >
		</node>
		<node id="1158463006" x="-112.082494" y="33.4326711" >
		</node>
		<node id="1158463035" x="-112.0824769" y="33.4306319" >
		</node>
		<node id="1158463110" x="-112.0520798" y="33.4466309" >
		</node>
		<node id="1158509180" x="-112.076442" y="33.4482495" >
		</node>
		<node id="1158509233" x="-112.0762872" y="33.447139" >
		</node>
		<node id="1158509334" x="-112.0765656" y="33.4471361" >
		</node>
		<node id="1158509357" x="-112.0766892" y="33.4482479" >
		</node>
		<node id="1188262948" x="-111.95172019999998" y="33.4536636" >
		</node>
		<node id="1188262960" x="-111.953087" y="33.45363480000001" >
		</node>
		<node id="1188262968" x="-111.95031630000001" y="33.4532564" >
		</node>
		<node id="1188262971" x="-111.949809" y="33.4532441" >
		</node>
		<node id="1188262987" x="-111.9490834" y="33.4520393" >
		</node>
		<node id="1188262995" x="-111.9533793" y="33.4538709" >
		</node>
		<node id="1188263009" x="-111.9486439" y="33.452599" >
		</node>
		<node id="1188263012" x="-111.949927" y="33.4532294" >
		</node>
		<node id="1188263026" x="-111.9511933" y="33.4535498" >
		</node>
		<node id="1188263044" x="-111.95150629999999" y="33.4536581" >
		</node>
		<node id="1188263045" x="-111.9506311" y="33.452598200000004" >
		</node>
		<node id="1188263067" x="-111.9521942" y="33.4533965" >
		</node>
		<node id="1188263071" x="-111.948858" y="33.4523061" >
		</node>
		<node id="1188263072" x="-111.9506215" y="33.452496" >
		</node>
		<node id="1188263094" x="-111.94852319999998" y="33.4527525" >
		</node>
		<node id="1188263105" x="-111.9497578" y="33.4532763" >
		</node>
		<node id="1188263110" x="-111.9528617" y="33.4533931" >
		</node>
		<node id="1188263168" x="-111.948744" y="33.4524468" >
		</node>
		<node id="1188263170" x="-111.9531816" y="33.453594800000005" >
		</node>
		<node id="1188263191" x="-111.9515008" y="33.453561" >
		</node>
		<node id="1188263206" x="-111.9493069" y="33.4517548" >
		</node>
		<node id="1188263237" x="-111.9495065" y="33.4515008" >
		</node>
		<node id="1188263240" x="-111.9500916" y="33.4532431" >
		</node>
		<node id="1188263255" x="-111.9521267" y="33.4535632" >
		</node>
		<node id="1188263260" x="-111.94897860000003" y="33.4521735" >
		</node>
		<node id="1188263263" x="-111.9505943" y="33.4528498" >
		</node>
		<node id="1188263291" x="-111.95127920000002" y="33.4534782" >
		</node>
		<node id="1188263310" x="-111.95326709999999" y="33.4539178" >
		</node>
		<node id="1188263312" x="-111.9504764" y="33.453069" >
		</node>
		<node id="1188263316" x="-111.95242580000001" y="33.4534649" >
		</node>
		<node id="1188263323" x="-111.95277579999998" y="33.4534916" >
		</node>
		<node id="1188263330" x="-111.9525505" y="33.4533394" >
		</node>
		<node id="1188263340" x="-111.9491944" y="33.4518981" >
		</node>
		<node id="1188263350" x="-111.95191749999998" y="33.4535274" >
		</node>
		<node id="1190578966" x="-111.949143" y="33.4519635" >
		</node>
		<node id="1191055927" x="-112.0819796" y="33.4013325" >
		</node>
		<node id="1215654696" x="-111.9812539" y="33.4478488" >
		</node>
		<node id="1215654773" x="-111.98238319999999" y="33.4479865" >
		</node>
		<node id="1215654865" x="-111.98199429999998" y="33.4479388" >
		</node>
		<node id="1215654911" x="-111.98764360000001" y="33.4458652" >
		</node>
		<node id="1215654916" x="-111.98141549999998" y="33.4476375" >
		</node>
		<node id="1215654975" x="-111.9817072" y="33.4476722" >
		</node>
		<node id="1215655081" x="-111.98189930000001" y="33.4476951" >
		</node>
		<node id="1215655098" x="-111.9822894" y="33.4477416" >
		</node>
		<node id="1215655131" x="-111.9816216" y="33.4478933" >
		</node>
		<node id="1215674008" x="-111.9859786" y="33.4482593" >
		</node>
		<node id="1215674010" x="-111.9886171" y="33.4483037" >
		</node>
		<node id="1222387921" x="-111.97815929999999" y="33.4570634" >
		</node>
		<node id="1222387927" x="-111.98263759999999" y="33.4578824" >
		</node>
		<node id="1222387935" x="-111.9955212" y="33.4590913" >
		</node>
		<node id="1222387941" x="-111.98626680000001" y="33.4583532" >
		</node>
		<node id="1222387961" x="-111.99489320000002" y="33.4592792" >
		</node>
		<node id="1222387969" x="-111.98404089999998" y="33.458104" >
		</node>
		<node id="1222387978" x="-111.99490269999998" y="33.459048" >
		</node>
		<node id="1222388028" x="-111.98942590000001" y="33.4588367" >
		</node>
		<node id="1222388031" x="-111.9894206" y="33.4586308" >
		</node>
		<node id="1222388043" x="-111.97876540000001" y="33.4572213" >
		</node>
		<node id="1222388070" x="-111.9781566" y="33.4568127" >
		</node>
		<node id="1222388104" x="-111.9954944" y="33.4593294" >
		</node>
		<node id="1222388137" x="-111.9862809" y="33.4585587" >
		</node>
		<node id="1222388139" x="-111.9787209" y="33.4569448" >
		</node>
		<node id="1222388147" x="-111.9839634" y="33.4583624" >
		</node>
		<node id="1224392282" x="-111.8791371" y="33.5537033" >
		</node>
		<node id="1224392284" x="-111.87940389999999" y="33.553712" >
		</node>
		<node id="1224392314" x="-111.8791268" y="33.553345" >
		</node>
		<node id="1224392327" x="-111.87939710000002" y="33.5533186" >
		</node>
		<node id="1224399023" x="-111.88784390000001" y="33.4946811" >
		</node>
		<node id="1224399027" x="-111.8820951" y="33.5381449" >
		</node>
		<node id="1224399028" x="-111.88725050000001" y="33.5241399" >
		</node>
		<node id="1224399042" x="-111.88784629999999" y="33.4951236" >
		</node>
		<node id="1224399045" x="-111.8818023" y="33.5381708" >
		</node>
		<node id="1224399046" x="-111.8880578" y="33.4951358" >
		</node>
		<node id="1224399047" x="-111.88805679999999" y="33.4946717" >
		</node>
		<node id="1224399051" x="-111.8874458" y="33.5241669" >
		</node>
		<node id="1224399054" x="-111.8818555" y="33.5387444" >
		</node>
		<node id="1224399060" x="-111.88755870000001" y="33.5236915" >
		</node>
		<node id="1224399062" x="-111.88157400000001" y="33.53876820000001" >
		</node>
		<node id="1255456774" x="-112.06791410000001" y="33.4544524" >
		</node>
		<node id="1255456776" x="-112.0674894" y="33.4552619" >
		</node>
		<node id="1256224035" x="-112.0674782" y="33.4481665" >
		</node>
		<node id="1256224041" x="-112.0673208" y="33.4482208" >
		</node>
		<node id="1256224044" x="-112.0673935" y="33.450389" >
		</node>
		<node id="1256224047" x="-112.0674874" y="33.4503195" >
		</node>
		<node id="1256224056" x="-112.06748030000001" y="33.448424" >
		</node>
		<node id="1256224080" x="-112.06581969999999" y="33.4504339" >
		</node>
		<node id="1256224083" x="-112.066467" y="33.45086100000001" >
		</node>
		<node id="1256224100" x="-112.0658176" y="33.4503987" >
		</node>
		<node id="1256224113" x="-112.0660032" y="33.4508852" >
		</node>
		<node id="1256224118" x="-112.06588989999999" y="33.45082060000001" >
		</node>
		<node id="1256224119" x="-112.0674906" y="33.4503895" >
		</node>
		<node id="1256224131" x="-112.06516050000002" y="33.451369" >
		</node>
		<node id="1256224171" x="-112.0663459" y="33.4509135" >
		</node>
		<node id="1256224174" x="-112.06583080000001" y="33.4507091" >
		</node>
		<node id="1256224176" x="-112.06617839999998" y="33.4509323" >
		</node>
		<node id="1256224191" x="-112.0665518" y="33.4507868" >
		</node>
		<node id="1256224193" x="-112.0658192" y="33.4505519" >
		</node>
		<node id="1256224197" x="-112.0666257" y="33.4503965" >
		</node>
		<node id="1256224212" x="-112.06662290000001" y="33.4504432" >
		</node>
		<node id="1256224223" x="-112.06661219999998" y="33.450633" >
		</node>
		<node id="1256224238" x="-112.073824" y="33.452532" >
		</node>
		<node id="1256224256" x="-112.0666159" y="33.4504948" >
		</node>
		<node id="1256264415" x="-112.0725622" y="33.4488071" >
		</node>
		<node id="1256264416" x="-112.07302589999999" y="33.4504423" >
		</node>
		<node id="1256264419" x="-112.0743291" y="33.4503843" >
		</node>
		<node id="1256264432" x="-112.07279520000002" y="33.4504367" >
		</node>
		<node id="1256264433" x="-112.07273490000001" y="33.4489463" >
		</node>
		<node id="1256264435" x="-112.0712648" y="33.4487982" >
		</node>
		<node id="1256264442" x="-112.07369230000002" y="33.4489535" >
		</node>
		<node id="1256264450" x="-112.07447260000002" y="33.4503824" >
		</node>
		<node id="1256264451" x="-112.0744236" y="33.4498496" >
		</node>
		<node id="1256264465" x="-112.07391829999999" y="33.4498514" >
		</node>
		<node id="1256264486" x="-112.0729955" y="33.4504919" >
		</node>
		<node id="1256264491" x="-112.0730795" y="33.4498403" >
		</node>
		<node id="1256264512" x="-112.0725641" y="33.448952" >
		</node>
		<node id="1256264519" x="-112.0725492" y="33.4498376" >
		</node>
		<node id="1256264535" x="-112.0728356" y="33.4504839" >
		</node>
		<node id="1256264537" x="-112.07380760000001" y="33.4489507" >
		</node>
		<node id="1256264556" x="-112.0729043" y="33.4504948" >
		</node>
		<node id="1256264567" x="-112.07381560000002" y="33.4498552" >
		</node>
		<node id="1256264581" x="-112.0727826" y="33.4503961" >
		</node>
		<node id="1256264595" x="-112.07126689999998" y="33.4488619" >
		</node>
		<node id="1256264597" x="-112.0730561" y="33.4503936" >
		</node>
		<node id="1256281943" x="-112.0691909" y="33.4548039" >
		</node>
		<node id="1256282109" x="-112.06918619999999" y="33.4544157" >
		</node>
		<node id="1256288374" x="-112.0860275" y="33.4470878" >
		</node>
		<node id="1256288463" x="-112.0860235" y="33.4481991" >
		</node>
		<node id="1256288506" x="-112.086934" y="33.4481943" >
		</node>
		<node id="1256288554" x="-112.08257789999999" y="33.4480952" >
		</node>
		<node id="1256291656" x="-112.07320410000001" y="33.4555664" >
		</node>
		<node id="1256291664" x="-112.0732102" y="33.4565928" >
		</node>
		<node id="1256291668" x="-112.0732133" y="33.4600089" >
		</node>
		<node id="1256291669" x="-112.0732105" y="33.4586674" >
		</node>
		<node id="1256291675" x="-112.0732116" y="33.4581261" >
		</node>
		<node id="1256291677" x="-112.07320209999999" y="33.4546067" >
		</node>
		<node id="1256291679" x="-112.0719171" y="33.460007600000004" >
		</node>
		<node id="1256291683" x="-112.0719225" y="33.4576337" >
		</node>
		<node id="1256291685" x="-112.0732031" y="33.4550514" >
		</node>
		<node id="1256291687" x="-112.0719209" y="33.4583431" >
		</node>
		<node id="1256291692" x="-112.0719141" y="33.4613065" >
		</node>
		<node id="1256291696" x="-112.07320390000001" y="33.4554426" >
		</node>
		<node id="1256291700" x="-112.07192490000001" y="33.4565961" >
		</node>
		<node id="1256291706" x="-112.0732078" y="33.457327" >
		</node>
		<node id="1256291713" x="-112.07191900000001" y="33.4591441" >
		</node>
		<node id="1256291716" x="-112.0731924" y="33.4540717" >
		</node>
		<node id="1256291719" x="-112.0719263" y="33.4559403" >
		</node>
		<node id="1256291723" x="-112.0731971" y="33.4543848" >
		</node>
		<node id="1256291727" x="-112.0719272" y="33.4555614" >
		</node>
		<node id="1256291729" x="-112.07320839999998" y="33.457638" >
		</node>
		<node id="1256291733" x="-112.07192010000001" y="33.4586829" >
		</node>
		<node id="1256291734" x="-112.0724927" y="33.4545393" >
		</node>
		<node id="1256291738" x="-112.07320180000002" y="33.4544505" >
		</node>
		<node id="1256291743" x="-112.07321170000003" y="33.4592224" >
		</node>
		<node id="1256291745" x="-112.0732051" y="33.4560202" >
		</node>
		<node id="1256291749" x="-112.0719238" y="33.4570429" >
		</node>
		<node id="1256291751" x="-112.0719251" y="33.4564845" >
		</node>
		<node id="1256304492" x="-112.07579920000002" y="33.4514013" >
		</node>
		<node id="1256304496" x="-112.0757881" y="33.454724" >
		</node>
		<node id="1256304498" x="-112.0770959" y="33.4559038" >
		</node>
		<node id="1256304500" x="-112.07578690000001" y="33.452046" >
		</node>
		<node id="1256304501" x="-112.07579229999999" y="33.4538945" >
		</node>
		<node id="1256304556" x="-112.07711190000002" y="33.4530128" >
		</node>
		<node id="1256304590" x="-112.0771023" y="33.4547282" >
		</node>
		<node id="1256304613" x="-112.07708619999998" y="33.4586541" >
		</node>
		<node id="1256304663" x="-112.077117" y="33.4513988" >
		</node>
		<node id="1256304701" x="-112.0770851" y="33.4576717" >
		</node>
		<node id="1256304703" x="-112.0757774" y="33.4566961" >
		</node>
		<node id="1256304740" x="-112.0770916" y="33.4567067" >
		</node>
		<node id="1256304741" x="-112.0674961" y="33.4514287" >
		</node>
		<node id="1256304808" x="-112.07711190000002" y="33.451764" >
		</node>
		<node id="1256304839" x="-112.07578690000001" y="33.4573763" >
		</node>
		<node id="1256400610" x="-112.08799370000001" y="33.4481885" >
		</node>
		<node id="1256400667" x="-112.08800530000002" y="33.4492544" >
		</node>
		<node id="1256782411" x="-112.0662556" y="33.4565734" >
		</node>
		<node id="1256782446" x="-112.0665332" y="33.4547654" >
		</node>
		<node id="1256782449" x="-112.06653460000001" y="33.455298" >
		</node>
		<node id="1256782461" x="-112.06871529999998" y="33.4571673" >
		</node>
		<node id="1256782470" x="-112.0674829" y="33.4554213" >
		</node>
		<node id="1256782484" x="-112.0662453" y="33.4552978" >
		</node>
		<node id="1256782489" x="-112.0674826" y="33.4564471" >
		</node>
		<node id="1256782502" x="-112.06653299999999" y="33.4546648" >
		</node>
		<node id="1257579252" x="-111.9160448" y="33.4657167" >
		</node>
		<node id="1257579267" x="-111.9153291" y="33.4657208" >
		</node>
		<node id="1259254954" x="-112.0712722" y="33.4535606" >
		</node>
		<node id="1259254963" x="-112.0641389" y="33.4499466" >
		</node>
		<node id="1259254964" x="-112.06785179999999" y="33.4543597" >
		</node>
		<node id="1259254965" x="-112.0698483" y="33.4513389" >
		</node>
		<node id="1259254971" x="-112.0687565" y="33.4555361" >
		</node>
		<node id="1259254975" x="-112.06800400000002" y="33.4544111" >
		</node>
		<node id="1259254985" x="-112.06997210000002" y="33.4535606" >
		</node>
		<node id="1259255002" x="-112.0629096" y="33.4489489" >
		</node>
		<node id="1259255012" x="-112.0674897" y="33.4515305" >
		</node>
		<node id="1259255022" x="-112.06413309999999" y="33.4499792" >
		</node>
		<node id="1259255039" x="-112.0698743" y="33.4544314" >
		</node>
		<node id="1259255060" x="-112.06748410000002" y="33.4488109" >
		</node>
		<node id="1259255062" x="-112.0631893" y="33.4502125" >
		</node>
		<node id="1259255064" x="-112.0688343" y="33.4565842" >
		</node>
		<node id="1259255069" x="-112.0712683" y="33.4534068" >
		</node>
		<node id="1259255088" x="-112.0725414" y="33.4535705" >
		</node>
		<node id="1259255095" x="-112.0677259" y="33.448807" >
		</node>
		<node id="1259255136" x="-112.0675891" y="33.4522115" >
		</node>
		<node id="1259255150" x="-112.0651332" y="33.4499292" >
		</node>
		<node id="1259255189" x="-112.06415039999999" y="33.4513559" >
		</node>
		<node id="1259255196" x="-112.0699902" y="33.4515236" >
		</node>
		<node id="1259255208" x="-112.0620956" y="33.4488091" >
		</node>
		<node id="1259255242" x="-112.0674944" y="33.4527594" >
		</node>
		<node id="1259255249" x="-112.0699915" y="33.4543718" >
		</node>
		<node id="1259255255" x="-112.0674549" y="33.4543539" >
		</node>
		<node id="1259255273" x="-112.0725385" y="33.4534064" >
		</node>
		<node id="1259255320" x="-112.0699737" y="33.4529765" >
		</node>
		<node id="1259255323" x="-112.0699703" y="33.4533827" >
		</node>
		<node id="1260482774" x="-112.0736875" y="33.4954904" >
		</node>
		<node id="1260486004" x="-112.0777864" y="33.460102" >
		</node>
		<node id="1260486005" x="-112.07397029999998" y="33.4598038" >
		</node>
		<node id="1260486006" x="-112.0777757" y="33.4597796" >
		</node>
		<node id="1260486009" x="-112.07392569999999" y="33.4601047" >
		</node>
		<node id="1260489891" x="-112.0770858" y="33.4582917" >
		</node>
		<node id="1260489893" x="-112.0770852" y="33.4577546" >
		</node>
		<node id="1260489894" x="-112.07773170000002" y="33.457757" >
		</node>
		<node id="1260489895" x="-112.0775185" y="33.4586494" >
		</node>
		<node id="1263051705" x="-112.06535170000001" y="33.4513174" >
		</node>
		<node id="1263051728" x="-112.0661765" y="33.451229" >
		</node>
		<node id="1263051830" x="-112.0661823" y="33.4511731" >
		</node>
		<node id="1263051836" x="-112.06659910000002" y="33.4507037" >
		</node>
		<node id="1263051839" x="-112.0661966" y="33.4503986" >
		</node>
		<node id="1263051845" x="-112.0620834" y="33.459108" >
		</node>
		<node id="1263051862" x="-112.06749550000002" y="33.4512471" >
		</node>
		<node id="1263051866" x="-112.06749089999998" y="33.45044990000001" >
		</node>
		<node id="1263051875" x="-112.0641492" y="33.4512537" >
		</node>
		<node id="1263051890" x="-112.06582230000001" y="33.4504927" >
		</node>
		<node id="1263051892" x="-112.0652897" y="33.4503974" >
		</node>
		<node id="1263051902" x="-112.0673552" y="33.451316" >
		</node>
		<node id="1263051917" x="-112.06617520000002" y="33.4513076" >
		</node>
		<node id="1264727238" x="-112.0684125" y="33.4515446" >
		</node>
		<node id="1264727247" x="-112.0682757" y="33.4515983" >
		</node>
		<node id="1264727258" x="-112.0682234" y="33.4515737" >
		</node>
		<node id="1264727261" x="-112.0683387" y="33.4516005" >
		</node>
		<node id="1264727265" x="-112.0676354" y="33.4513295" >
		</node>
		<node id="1264727269" x="-112.06812909999998" y="33.4514597" >
		</node>
		<node id="1264727273" x="-112.06815590000002" y="33.4515128" >
		</node>
		<node id="1264727291" x="-112.0684214" y="33.4514946" >
		</node>
		<node id="1264727293" x="-112.06841750000002" y="33.4514641" >
		</node>
		<node id="1264727295" x="-112.0683729" y="33.451588" >
		</node>
		<node id="1264727298" x="-112.06839500000001" y="33.4515692" >
		</node>
		<node id="1264727307" x="-112.06818309999998" y="33.4515468" >
		</node>
		<node id="1264744948" x="-112.09578879999998" y="33.4481886" >
		</node>
		<node id="1264744980" x="-112.0946243" y="33.4470228" >
		</node>
		<node id="1264745037" x="-112.09569839999999" y="33.4492384" >
		</node>
		<node id="1264745107" x="-112.0958491" y="33.4491112" >
		</node>
		<node id="1264745111" x="-112.0956775" y="33.4470052" >
		</node>
		<node id="1264745170" x="-112.095815" y="33.4471038" >
		</node>
		<node id="1264745174" x="-112.09497140000002" y="33.4492433" >
		</node>
		<node id="1264745221" x="-112.0957875" y="33.4480753" >
		</node>
		<node id="1264745269" x="-112.0937228" y="33.4470366" >
		</node>
		<node id="1278935909" x="-112.06735050000002" y="33.4466617" >
		</node>
		<node id="1278935964" x="-112.06747780000002" y="33.4481235" >
		</node>
		<node id="1278936022" x="-112.06760990000001" y="33.448222400000006" >
		</node>
		<node id="1278936139" x="-112.0652979" y="33.4472138" >
		</node>
		<node id="1278936161" x="-112.0685907" y="33.4463889" >
		</node>
		<node id="1278936216" x="-112.0688147" y="33.4463939" >
		</node>
		<node id="1278936280" x="-112.07125420000001" y="33.4475369" >
		</node>
		<node id="1278936321" x="-112.06719810000001" y="33.4466133" >
		</node>
		<node id="1278949051" x="-112.0674749" y="33.4476758" >
		</node>
		<node id="1295309438" x="-112.07643630000001" y="33.4510987" >
		</node>
		<node id="1295309446" x="-112.0761732" y="33.45068880000001" >
		</node>
		<node id="1295309448" x="-112.0777314" y="33.4541019" >
		</node>
		<node id="1295309452" x="-112.07628410000001" y="33.4506863" >
		</node>
		<node id="1295309454" x="-112.0762262" y="33.45110050000001" >
		</node>
		<node id="1295309475" x="-112.07643760000002" y="33.4506698" >
		</node>
		<node id="1295309476" x="-112.07708700000002" y="33.4545032" >
		</node>
		<node id="1295309480" x="-112.0763572" y="33.4506863" >
		</node>
		<node id="1295309491" x="-112.0770871" y="33.4546123" >
		</node>
		<node id="1295309493" x="-112.07709400000002" y="33.454084" >
		</node>
		<node id="1295309494" x="-112.07628819999998" y="33.4511" >
		</node>
		<node id="1295309511" x="-112.0763587" y="33.4510994" >
		</node>
		<node id="1295670217" x="-112.07125639999998" y="33.4481363" >
		</node>
		<node id="1295670219" x="-112.0725605" y="33.4480963" >
		</node>
		<node id="1295670224" x="-112.07770760000001" y="33.4481164" >
		</node>
		<node id="1295670231" x="-112.0750941" y="33.4481349" >
		</node>
		<node id="1295670235" x="-112.0738521" y="33.4481033" >
		</node>
		<node id="1300385390" x="-112.06811739999999" y="33.4565892" >
		</node>
		<node id="1300385392" x="-112.0681066" y="33.4576231" >
		</node>
		<node id="1300385394" x="-112.06816269999999" y="33.454808400000005" >
		</node>
		<node id="1300385396" x="-112.0681162" y="33.4549235" >
		</node>
		<node id="1300385397" x="-112.06811200000001" y="33.4552641" >
		</node>
		<node id="1300385399" x="-112.06811989999999" y="33.4555312" >
		</node>
		<node id="1300385401" x="-112.0681173" y="33.4555326" >
		</node>
		<node id="1300385405" x="-112.068109" y="33.4586632" >
		</node>
		<node id="1300763516" x="-112.07386720000001" y="33.4477919" >
		</node>
		<node id="1300763519" x="-112.0739711" y="33.4482131" >
		</node>
		<node id="1300763536" x="-112.0738202" y="33.4463872" >
		</node>
		<node id="1300763582" x="-112.0738483" y="33.4472981" >
		</node>
		<node id="1300763587" x="-112.0738258" y="33.4461769" >
		</node>
		<node id="1300763591" x="-112.0739435" y="33.4471687" >
		</node>
		<node id="1300763598" x="-112.0749513" y="33.4471543" >
		</node>
		<node id="1300763601" x="-112.07381160000001" y="33.44661800000001" >
		</node>
		<node id="1300763602" x="-112.07381629999999" y="33.4468492" >
		</node>
		<node id="1300763603" x="-112.07386720000001" y="33.4477013" >
		</node>
		<node id="1300763604" x="-112.073827" y="33.44702790000001" >
		</node>
		<node id="1300941351" x="-112.07723229999999" y="33.4491997" >
		</node>
		<node id="1300941357" x="-112.0777123" y="33.449077" >
		</node>
		<node id="1300941358" x="-112.0738614" y="33.4475732" >
		</node>
		<node id="1300941362" x="-112.0746706" y="33.448264" >
		</node>
		<node id="1300941390" x="-112.0773316" y="33.4492331" >
		</node>
		<node id="1300941413" x="-112.0750945" y="33.44800420000001" >
		</node>
		<node id="1300941423" x="-112.0773316" y="33.4493128" >
		</node>
		<node id="1300941427" x="-112.0774214" y="33.4493135" >
		</node>
		<node id="1300941430" x="-112.07723499999999" y="33.4493121" >
		</node>
		<node id="1300941436" x="-112.07509330000002" y="33.4480676" >
		</node>
		<node id="1300941467" x="-112.07723369999998" y="33.4492348" >
		</node>
		<node id="1300941471" x="-112.0773308" y="33.4491984" >
		</node>
		<node id="1300941475" x="-112.07741879999999" y="33.4491976" >
		</node>
		<node id="1300941484" x="-112.07511330000001" y="33.4474954" >
		</node>
		<node id="1300941498" x="-112.0774187" y="33.4492317" >
		</node>
		<node id="1300976763" x="-112.0758559" y="33.4514013" >
		</node>
		<node id="1300976764" x="-112.0758141" y="33.450372" >
		</node>
		<node id="1301147301" x="-112.07670889999999" y="33.4514014" >
		</node>
		<node id="1301147317" x="-112.07320229999999" y="33.4546932" >
		</node>
		<node id="1301147319" x="-112.0730244" y="33.4546965" >
		</node>
		<node id="1301147333" x="-112.075214" y="33.4538682" >
		</node>
		<node id="1301147336" x="-112.06685940000001" y="33.4565783" >
		</node>
		<node id="1301147352" x="-112.0775196" y="33.4508284" >
		</node>
		<node id="1301147353" x="-112.06153170000002" y="33.46126040000001" >
		</node>
		<node id="1301147355" x="-112.0693778" y="33.4565795" >
		</node>
		<node id="1301147360" x="-112.0775184" y="33.4506828" >
		</node>
		<node id="1301147363" x="-112.06936990000001" y="33.4586757" >
		</node>
		<node id="1301147383" x="-112.0693538" y="33.4555355" >
		</node>
		<node id="1301147391" x="-112.0764321" y="33.4520398" >
		</node>
		<node id="1301147397" x="-112.076702" y="33.4509747" >
		</node>
		<node id="1301147409" x="-112.07320369999998" y="33.4553556" >
		</node>
		<node id="1301147438" x="-112.0728261" y="33.4546999" >
		</node>
		<node id="1301147439" x="-112.07671920000001" y="33.4506722" >
		</node>
		<node id="1301147442" x="-112.07379859999999" y="33.4538726" >
		</node>
		<node id="1301147458" x="-112.07302459999998" y="33.4553712" >
		</node>
		<node id="1301147498" x="-112.07358560000002" y="33.4546978" >
		</node>
		<node id="1301147530" x="-112.0765301" y="33.4509755" >
		</node>
		<node id="1301147535" x="-112.0692143" y="33.4555357" >
		</node>
		<node id="1301147553" x="-112.07642779999999" y="33.4520973" >
		</node>
		<node id="1301147567" x="-112.06339769999998" y="33.4612627" >
		</node>
		<node id="1301147599" x="-112.0774648" y="33.4512053" >
		</node>
		<node id="1301147622" x="-112.07672" y="33.4505507" >
		</node>
		<node id="1301147624" x="-112.0728261" y="33.4553712" >
		</node>
		<node id="1301147641" x="-112.0765956" y="33.4509752" >
		</node>
		<node id="1301147643" x="-112.0733979" y="33.4553552" >
		</node>
		<node id="1301147645" x="-112.0693591" y="33.4576267" >
		</node>
		<node id="1301147647" x="-112.0692033" y="33.4552855" >
		</node>
		<node id="1301147655" x="-112.07340290000002" y="33.4546968" >
		</node>
		<node id="1301147658" x="-112.0774734" y="33.4514005" >
		</node>
		<node id="1301147661" x="-112.07643719999999" y="33.4509758" >
		</node>
		<node id="1301147678" x="-112.076721" y="33.4508327" >
		</node>
		<node id="1301147681" x="-112.0767034" y="33.4512084" >
		</node>
		<node id="1301147707" x="-112.0609048" y="33.46126000000001" >
		</node>
		<node id="1301147720" x="-112.07191589999998" y="33.4544335" >
		</node>
		<node id="1301147728" x="-112.0775936" y="33.450971" >
		</node>