<?xml version="1.0" encoding="UTF-8"?>
<!DOCTYPE network SYSTEM "http://www.matsim.org/files/dtd/network_v2.dtd">
<network>

<!-- ====================================================================== -->

	<nodes>
		<node id="1060695605" x="-112.1386795" y="33.4985472" >
		</node>
		<node id="1065092788" x="-112.12583980000001" y="33.4876755" >
		</node>
		<node id="1116347711" x="-111.98714930000001" y="33.445851" >
		</node>
		<node id="1128307306" x="-112.0693639" y="33.4620557" >
		</node>
		<node id="1158463035" x="-112.0824769" y="33.4306319" >
		</node>
		<node id="1158463110" x="-112.0520798" y="33.4466309" >
		</node>
		<node id="1188262995" x="-111.9533793" y="33.4538709" >
		</node>
		<node id="1188263094" x="-111.94852319999998" y="33.4527525" >
		</node>
		<node id="1215654696" x="-111.9812539" y="33.4478488" >
		</node>
		<node id="1215655098" x="-111.9822894" y="33.4477416" >
		</node>
		<node id="1256224100" x="-112.0658176" y="33.4503987" >
		</node>
		<node id="1256224119" x="-112.0674906" y="33.4503895" >
		</node>
		<node id="1256224131" x="-112.06516050000002" y="33.451369" >
		</node>
		<node id="1256224176" x="-112.06617839999998" y="33.4509323" >
		</node>
		<node id="1256224197" x="-112.0666257" y="33.4503965" >
		</node>
		<node id="1256264415" x="-112.0725622" y="33.4488071" >
		</node>
		<node id="1256264435" x="-112.0712648" y="33.4487982" >
		</node>
		<node id="1256264450" x="-112.07447260000002" y="33.4503824" >
		</node>
		<node id="1256264512" x="-112.0725641" y="33.448952" >
		</node>
		<node id="1256264519" x="-112.0725492" y="33.4498376" >
		</node>
		<node id="1256264537" x="-112.07380760000001" y="33.4489507" >
		</node>
		<node id="1256264567" x="-112.07381560000002" y="33.4498552" >
		</node>
		<node id="1256264581" x="-112.0727826" y="33.4503961" >
		</node>
		<node id="1256264597" x="-112.0730561" y="33.4503936" >
		</node>
		<node id="1256281943" x="-112.0691909" y="33.4548039" >
		</node>
		<node id="1256291656" x="-112.07320410000001" y="33.4555664" >
		</node>
		<node id="1256291664" x="-112.0732102" y="33.4565928" >
		</node>
		<node id="1256291668" x="-112.0732133" y="33.4600089" >
		</node>
		<node id="1256291669" x="-112.0732105" y="33.4586674" >
		</node>
		<node id="1256291675" x="-112.0732116" y="33.4581261" >
		</node>
		<node id="1256291679" x="-112.0719171" y="33.460007600000004" >
		</node>
		<node id="1256291683" x="-112.0719225" y="33.4576337" >
		</node>
		<node id="1256291692" x="-112.0719141" y="33.4613065" >
		</node>
		<node id="1256291700" x="-112.07192490000001" y="33.4565961" >
		</node>
		<node id="1256291716" x="-112.0731924" y="33.4540717" >
		</node>
		<node id="1256291727" x="-112.0719272" y="33.4555614" >
		</node>
		<node id="1256291729" x="-112.07320839999998" y="33.457638" >
		</node>
		<node id="1256291733" x="-112.07192010000001" y="33.4586829" >
		</node>
		<node id="1256291738" x="-112.07320180000002" y="33.4544505" >
		</node>
		<node id="1256304492" x="-112.07579920000002" y="33.4514013" >
		</node>
		<node id="1256304496" x="-112.0757881" y="33.454724" >
		</node>
		<node id="1256304590" x="-112.0771023" y="33.4547282" >
		</node>
		<node id="1256304613" x="-112.07708619999998" y="33.4586541" >
		</node>
		<node id="1256304663" x="-112.077117" y="33.4513988" >
		</node>
		<node id="1256304703" x="-112.0757774" y="33.4566961" >
		</node>
		<node id="1256304740" x="-112.0770916" y="33.4567067" >
		</node>
		<node id="1256304741" x="-112.0674961" y="33.4514287" >
		</node>
		<node id="1256782411" x="-112.0662556" y="33.4565734" >
		</node>
		<node id="1256782446" x="-112.0665332" y="33.4547654" >
		</node>
		<node id="1256782484" x="-112.0662453" y="33.4552978" >
		</node>
		<node id="1259255060" x="-112.06748410000002" y="33.4488109" >
		</node>
		<node id="1259255095" x="-112.0677259" y="33.448807" >
		</node>
		<node id="1259255150" x="-112.0651332" y="33.4499292" >
		</node>
		<node id="1259255189" x="-112.06415039999999" y="33.4513559" >
		</node>
		<node id="1259255208" x="-112.0620956" y="33.4488091" >
		</node>
		<node id="1263051917" x="-112.06617520000002" y="33.4513076" >
		</node>
		<node id="1264744980" x="-112.0946243" y="33.4470228" >
		</node>
		<node id="1295309438" x="-112.07643630000001" y="33.4510987" >
		</node>
		<node id="1295309446" x="-112.0761732" y="33.45068880000001" >
		</node>
		<node id="1295309475" x="-112.07643760000002" y="33.4506698" >
		</node>
		<node id="1295309493" x="-112.07709400000002" y="33.454084" >
		</node>
		<node id="1300385390" x="-112.06811739999999" y="33.4565892" >
		</node>
		<node id="1300385392" x="-112.0681066" y="33.4576231" >
		</node>
		<node id="1300385394" x="-112.06816269999999" y="33.454808400000005" >
		</node>
		<node id="1300385401" x="-112.0681173" y="33.4555326" >
		</node>
		<node id="1300385405" x="-112.068109" y="33.4586632" >
		</node>
		<node id="1300941351" x="-112.07723229999999" y="33.4491997" >
		</node>
		<node id="1300941423" x="-112.0773316" y="33.4493128" >
		</node>
		<node id="1300941427" x="-112.0774214" y="33.4493135" >
		</node>
		<node id="1300941430" x="-112.07723499999999" y="33.4493121" >
		</node>
		<node id="1300941471" x="-112.0773308" y="33.4491984" >
		</node>
		<node id="1300941475" x="-112.07741879999999" y="33.4491976" >
		</node>
		<node id="1301147301" x="-112.07670889999999" y="33.4514014" >
		</node>
		<node id="1301147317" x="-112.07320229999999" y="33.4546932" >
		</node>
		<node id="1301147319" x="-112.0730244" y="33.4546965" >
		</node>
		<node id="1301147336" x="-112.06685940000001" y="33.4565783" >
		</node>
		<node id="1301147355" x="-112.0693778" y="33.4565795" >
		</node>
		<node id="1301147360" x="-112.0775184" y="33.4506828" >
		</node>
		<node id="1301147383" x="-112.0693538" y="33.4555355" >
		</node>
		<node id="1301147397" x="-112.076702" y="33.4509747" >
		</node>
		<node id="1301147409" x="-112.07320369999998" y="33.4553556" >
		</node>
		<node id="1301147439" x="-112.07671920000001" y="33.4506722" >
		</node>
		<node id="1301147535" x="-112.0692143" y="33.4555357" >
		</node>
		<node id="1301147599" x="-112.0774648" y="33.4512053" >
		</node>
		<node id="1301147624" x="-112.0728261" y="33.4553712" >
		</node>
		<node id="1301147643" x="-112.0733979" y="33.4553552" >
		</node>
		<node id="1301147645" x="-112.0693591" y="33.4576267" >
		</node>
		<node id="1301147655" x="-112.07340290000002" y="33.4546968" >
		</node>
		<node id="1301147658" x="-112.0774734" y="33.4514005" >
		</node>
		<node id="1301147661" x="-112.07643719999999" y="33.4509758" >
		</node>
		<node id="1301147681" x="-112.0767034" y="33.4512084" >
		</node>
		<node id="1301147765" x="-112.0775638" y="33.4512048" >
		</node>
		<node id="1301147778" x="-112.0668647" y="33.4576231" >
		</node>
		<node id="1301147791" x="-112.07671989999999" y="33.4506874" >
		</node>
		<node id="1301323186" x="-112.06339720000003" y="33.4521357" >
		</node>
		<node id="1301323388" x="-112.0634612" y="33.4517283" >
		</node>
		<node id="1301323539" x="-112.06346510000003" y="33.4513542" >
		</node>
		<node id="1301323548" x="-112.06346309999999" y="33.4515474" >
		</node>
		<node id="1301323567" x="-112.06323110000001" y="33.4513536" >
		</node>
		<node id="1301323581" x="-112.0636503" y="33.451965" >
		</node>
		<node id="1301323599" x="-112.06208790000001" y="33.45211840000001" >
		</node>
		<node id="1301323657" x="-112.0633931" y="33.4519632" >
		</node>
		<node id="1301323661" x="-112.06323130000001" y="33.4516046" >
		</node>
		<node id="1301323690" x="-112.0623738" y="33.4521302" >
		</node>
		<node id="1301323721" x="-112.06238219999999" y="33.4513516" >
		</node>
		<node id="1301323756" x="-112.0623791" y="33.4515975" >
		</node>
		<node id="1301323798" x="-112.0636486" y="33.4521375" >
		</node>
		<node id="1301323825" x="-112.06345880000002" y="33.4519636" >
		</node>
		<node id="1301346211" x="-112.0641451" y="33.4509348" >
		</node>
		<node id="1301346214" x="-112.06414250000002" y="33.4507305" >
		</node>
		<node id="1301346215" x="-112.0634736" y="33.4505587" >
		</node>
		<node id="1301346226" x="-112.0641473" y="33.451106" >
		</node>
		<node id="1301346229" x="-112.0641384" y="33.4504022" >
		</node>
		<node id="1307391440" x="-112.07320200000002" y="33.4545329" >
		</node>
		<node id="1307391441" x="-112.0730356" y="33.4540733" >
		</node>
		<node id="1307391442" x="-112.0620874" y="33.4543455" >
		</node>
		<node id="1307391447" x="-112.0710289" y="33.4558928" >
		</node>
		<node id="1307391449" x="-112.0564552" y="33.4562946" >
		</node>
		<node id="1307391451" x="-112.054275" y="33.4604993" >
		</node>
		<node id="1307391460" x="-112.07080890000002" y="33.4547672" >
		</node>
		<node id="1307391462" x="-112.05654770000001" y="33.453863" >
		</node>
		<node id="1307391463" x="-112.056461" y="33.4543522" >
		</node>
		<node id="1307391469" x="-112.07068899999999" y="33.4544345" >
		</node>
		<node id="1307391471" x="-112.07126889999999" y="33.4559858" >
		</node>
		<node id="1307391472" x="-112.05644250000002" y="33.4604881" >
		</node>
		<node id="1307391476" x="-112.0706975" y="33.4545389" >
		</node>
		<node id="1307391479" x="-112.0620882" y="33.4533563" >
		</node>
		<node id="1307391482" x="-112.0718552" y="33.4544341" >
		</node>
		<node id="1307391483" x="-112.06625639999999" y="33.4545374" >
		</node>
		<node id="1307391484" x="-112.07103109999998" y="33.4559958" >
		</node>
		<node id="1307391486" x="-112.06552969999998" y="33.4580722" >
		</node>
		<node id="1307391487" x="-112.07059329999998" y="33.4544325" >
		</node>
		<node id="1307391489" x="-112.07256340000002" y="33.4545391" >
		</node>
		<node id="1307391490" x="-112.0606906" y="33.4562946" >
		</node>
		<node id="1307391491" x="-112.0589705" y="33.4562874" >
		</node>
		<node id="1307391498" x="-112.0620857" y="33.4564177" >
		</node>
		<node id="1307391499" x="-112.0655206" y="33.4575871" >
		</node>
		<node id="1307391502" x="-112.0620866" y="33.4553234" >
		</node>
		<node id="1307391510" x="-112.0710305" y="33.4559688" >
		</node>
		<node id="1307391511" x="-112.05654270000002" y="33.4533842" >
		</node>
		<node id="1307391519" x="-112.05646380000002" y="33.4553212" >
		</node>
		<node id="1307391520" x="-112.06721850000001" y="33.4555282" >
		</node>
		<node id="1307391526" x="-112.0543754" y="33.45630130000001" >
		</node>
		<node id="1307391527" x="-112.0686728" y="33.4544137" >
		</node>
		<node id="1307391531" x="-112.0605337" y="33.4553329" >
		</node>
		<node id="1307391534" x="-112.0674872" y="33.4545404" >
		</node>
		<node id="1307391537" x="-112.0522" y="33.4543423" >
		</node>
		<node id="1307391542" x="-112.07127550000001" y="33.454545" >
		</node>
		<node id="1307391547" x="-112.06208580000002" y="33.4562856" >
		</node>
		<node id="1307391549" x="-112.0686782" y="33.4545397" >
		</node>
		<node id="1307391551" x="-112.07059329999998" y="33.4545351" >
		</node>
		<node id="1307391554" x="-112.0589622" y="33.4543477" >
		</node>
		<node id="1307391555" x="-112.0589692" y="33.4553232" >
		</node>
		<node id="1307391561" x="-112.070699" y="33.454768" >
		</node>
		<node id="1307391565" x="-112.0544272" y="33.4543455" >
		</node>
		<node id="1307391566" x="-112.0679691" y="33.4545341" >
		</node>
		<node id="1307391567" x="-112.07338160000002" y="33.4540697" >
		</node>
		<node id="1307391573" x="-112.0605323" y="33.4533809" >
		</node>
		<node id="1307391580" x="-112.070597" y="33.4547689" >
		</node>
		<node id="1307391584" x="-112.0735752" y="33.4542929" >
		</node>
		<node id="1307391585" x="-112.05896670000001" y="33.453372" >
		</node>
		<node id="1307391586" x="-112.05216060000001" y="33.4553279" >
		</node>
		<node id="1307391588" x="-112.0544013" y="33.4553213" >
		</node>
		<node id="1307391589" x="-112.06053300000002" y="33.4543499" >
		</node>
		<node id="1307391591" x="-112.0646329" y="33.4558112" >
		</node>
		<node id="1307391595" x="-112.0707586" y="33.45596" >
		</node>
		<node id="1307391601" x="-112.0714551" y="33.4542818" >
		</node>
		<node id="1307391604" x="-112.07303910000002" y="33.4543051" >
		</node>
		<node id="1307391606" x="-112.0699922" y="33.4545364" >
		</node>
		<node id="1307391613" x="-112.05214379999998" y="33.4562923" >
		</node>
		<node id="1313270185" x="-112.0731705" y="33.4489496" >
		</node>
		<node id="1313270302" x="-112.0735824" y="33.4489527" >
		</node>
		<node id="1313270304" x="-112.07127320000001" y="33.4501492" >
		</node>
		<node id="1313270355" x="-112.0737919" y="33.4543788" >
		</node>
		<node id="1313270438" x="-112.0680086" y="33.45227190000001" >
		</node>
		<node id="1313270613" x="-112.07127320000001" y="33.4495568" >
		</node>
		<node id="1313270947" x="-112.06748140000002" y="33.4522072" >
		</node>
		<node id="13266043" x="-111.9613752" y="33.3872759" >
		</node>
		<node id="13266047" x="-111.9584674" y="33.3865284" >
		</node>
		<node id="1327107955" x="-111.9053186" y="33.4657478" >
		</node>
		<node id="1329752083" x="-112.0595336" y="33.4513502" >
		</node>
		<node id="1332014896" x="-112.0732869" y="33.3813612" >
		</node>
		<node id="1335886042" x="-111.98708720000002" y="33.4467326" >
		</node>
		<node id="13365822" x="-111.8829726" y="33.5614229" >
		</node>
		<node id="13365829" x="-111.8879298" y="33.5196646" >
		</node>
		<node id="13365831" x="-111.8883802" y="33.48567390000001" >
		</node>
		<node id="13365855" x="-112.03268260000003" y="33.4619887" >
		</node>
		<node id="1373901354" x="-112.1323285" y="33.4630034" >
		</node>
		<node id="1376591422" x="-111.9925493" y="33.4588512" >
		</node>
		<node id="1378452457" x="-112.2855454" y="33.4500294" >
		</node>
		<node id="1386738087" x="-111.95301600000002" y="33.3856712" >
		</node>
		<node id="1387218463" x="-112.06936060000001" y="33.4623634" >
		</node>
		<node id="1400545123" x="-112.08231589999998" y="33.4198476" >
		</node>
		<node id="1404179916" x="-112.0622064" y="33.4498243" >
		</node>
		<node id="1404179932" x="-112.06209590000002" y="33.4508822" >
		</node>
		<node id="1432394042" x="-112.13009890000001" y="33.4913036" >
		</node>
		<node id="1435387859" x="-112.2145262" y="33.4516825" >
		</node>
		<node id="1435387860" x="-112.2167415" y="33.4516893" >
		</node>
		<node id="1444765296" x="-112.2814215" y="33.4501025" >
		</node>
		<node id="1447583705" x="-112.1001085" y="33.4497374" >
		</node>
		<node id="1450708348" x="-112.07509470000001" y="33.4426941" >
		</node>
		<node id="1457348940" x="-112.07577750000002" y="33.458640900000006" >
		</node>
		<node id="1498066655" x="-111.9990839" y="33.4480003" >
		</node>
		<node id="1498066675" x="-112.0085279" y="33.4480657" >
		</node>
		<node id="1498066791" x="-111.9990816" y="33.4482096" >
		</node>
		<node id="1498066834" x="-112.0119414" y="33.448267200000004" >
		</node>
		<node id="1499493705" x="-111.95783340000001" y="33.443914" >
		</node>
		<node id="1499493876" x="-111.9631088" y="33.4454778" >
		</node>
		<node id="1500305364" x="-112.0275407" y="33.4585665" >
		</node>
		<node id="1500496331" x="-111.9758465" y="33.4510682" >
		</node>
		<node id="1500574274" x="-111.9672323" y="33.4509224" >
		</node>
		<node id="1500641439" x="-111.9774658" y="33.4471931" >
		</node>
		<node id="1501879006" x="-112.0673004" y="33.4465574" >
		</node>
		<node id="1501879015" x="-112.06084269999998" y="33.4470815" >
		</node>
		<node id="1501879041" x="-112.0620981" y="33.4471007" >
		</node>
		<node id="1501879043" x="-112.06293060000003" y="33.447101" >
		</node>
		<node id="1501879048" x="-112.0602864" y="33.4471205" >
		</node>
		<node id="1501879131" x="-112.05898990000001" y="33.447238" >
		</node>
		<node id="1501879192" x="-112.05898950000001" y="33.4481919" >
		</node>
		<node id="1501879320" x="-112.0332456" y="33.4483057" >
		</node>
		<node id="1501879338" x="-112.0601572" y="33.4483367" >
		</node>
		<node id="1501879352" x="-112.062098" y="33.4483394" >
		</node>
		<node id="1501879393" x="-112.0751054" y="33.4497094" >
		</node>
		<node id="1501879405" x="-112.0750491" y="33.4503681" >
		</node>
		<node id="1501879642" x="-112.07378489999999" y="33.459619" >
		</node>
		<node id="1502088200" x="-112.0577077" y="33.4471261" >
		</node>
		<node id="1502088202" x="-112.0531183" y="33.4471435" >
		</node>
		<node id="1502088222" x="-112.03122760000001" y="33.4471457" >
		</node>
		<node id="1502088229" x="-112.0415157" y="33.4471811" >
		</node>
		<node id="1502088301" x="-112.0595453" y="33.4472392" >
		</node>
		<node id="1502088313" x="-112.0584319" y="33.4472442" >
		</node>
		<node id="1502088337" x="-112.056444" y="33.4472768" >
		</node>
		<node id="1502088354" x="-112.05388400000001" y="33.4472829" >
		</node>
		<node id="1502088362" x="-112.0542432" y="33.4472829" >
		</node>
		<node id="1502088378" x="-112.05208010000001" y="33.4472927" >
		</node>
		<node id="1502088464" x="-112.03656829999998" y="33.4473708" >
		</node>
		<node id="1502088565" x="-112.0564328" y="33.4481694" >
		</node>
		<node id="1502088585" x="-112.0545534" y="33.4481898" >
		</node>
		<node id="1502088601" x="-112.0542445" y="33.4481919" >
		</node>
		<node id="1502088607" x="-112.0621003" y="33.448194" >
		</node>
		<node id="1502088621" x="-112.0594018" y="33.4482013" >
		</node>
		<node id="1502088635" x="-112.0365511" y="33.4481986" >
		</node>
		<node id="1502088638" x="-112.05998949999999" y="33.44819830000001" >
		</node>
		<node id="1502088653" x="-112.05207930000002" y="33.4482024" >
		</node>
		<node id="1502088694" x="-112.0717322" y="33.4482181" >
		</node>
		<node id="1502088771" x="-112.05548560000001" y="33.44832790000001" >
		</node>
		<node id="1502088798" x="-112.03887559999998" y="33.4483614" >
		</node>
		<node id="1502088889" x="-112.03806700000001" y="33.4488899" >
		</node>
		<node id="1502088893" x="-112.0752605" y="33.4490183" >
		</node>
		<node id="1502088913" x="-112.0751101" y="33.449469" >
		</node>
		<node id="1502088987" x="-112.0744833" y="33.4513934" >
		</node>
		<node id="1502089016" x="-112.075189" y="33.4517482" >
		</node>
		<node id="1502089022" x="-112.07383669999999" y="33.4517632" >
		</node>
		<node id="1502089054" x="-112.0738985" y="33.4524168" >
		</node>
		<node id="1502089060" x="-112.07494490000003" y="33.4527337" >
		</node>
		<node id="1502089066" x="-112.0751934" y="33.4527742" >
		</node>
		<node id="1502089087" x="-112.0750509" y="33.4529467" >
		</node>
		<node id="1502089120" x="-112.0739289" y="33.4546977" >
		</node>
		<node id="1502089122" x="-112.07505389999999" y="33.454707" >
		</node>
		<node id="1502089146" x="-112.07393040000001" y="33.4566765" >
		</node>
		<node id="1502089154" x="-112.07505300000003" y="33.4566909" >
		</node>
		<node id="1502089175" x="-112.07393440000001" y="33.4571543" >
		</node>
		<node id="1502089208" x="-112.0737929" y="33.4578525" >
		</node>
		<node id="1502089218" x="-112.0747214" y="33.458548" >
		</node>
		<node id="1502089239" x="-112.0740643" y="33.4586408" >
		</node>
		<node id="1507966926" x="-111.95665649999998" y="33.4424919" >
		</node>
		<node id="1507966933" x="-111.9551764" y="33.4437224" >
		</node>
		<node id="1507966936" x="-111.9548332" y="33.4445137" >
		</node>
		<node id="1508153941" x="-111.9549659" y="33.444126" >
		</node>
		<node id="1508153978" x="-111.95521310000001" y="33.4470515" >
		</node>
		<node id="1508153996" x="-111.95604089999999" y="33.4487133" >
		</node>
		<node id="1508154020" x="-111.95608910000001" y="33.449278" >
		</node>
		<node id="1508154033" x="-111.9557137" y="33.4508432" >
		</node>
		<node id="1508154053" x="-111.9556842" y="33.4515908" >
		</node>
		<node id="1508154078" x="-111.9533445" y="33.4540502" >
		</node>
		<node id="1512268445" x="-112.07268629999999" y="33.4517887" >
		</node>
		<node id="1512268447" x="-112.0725506" y="33.4517892" >
		</node>
		<node id="1512268471" x="-112.0541986" y="33.4538614" >
		</node>
		<node id="1512268477" x="-112.07029249999998" y="33.4586803" >
		</node>
		<node id="1512268481" x="-112.0753954" y="33.4598226" >
		</node>
		<node id="1512268487" x="-112.07759450000002" y="33.4599312" >
		</node>
		<node id="1512268489" x="-112.0740955" y="33.4599319" >
		</node>
		<node id="1512268498" x="-112.07029249999998" y="33.4600004" >
		</node>
		<node id="1512268513" x="-112.0702897" y="33.461307000000005" >
		</node>
		<node id="1513713003" x="-112.056437" y="33.4477275" >
		</node>
		<node id="1513713004" x="-112.0542427" y="33.4477308" >
		</node>
		<node id="1513713005" x="-112.05207990000001" y="33.4477467" >
		</node>
		<node id="1513713022" x="-112.0564351" y="33.4488776" >
		</node>
		<node id="1513713023" x="-112.05423999999998" y="33.4488839" >
		</node>
		<node id="1513713050" x="-112.05423659999998" y="33.4499172" >
		</node>
		<node id="1513713051" x="-112.0564355" y="33.4499274" >
		</node>
		<node id="1513713062" x="-112.0564359" y="33.4508664" >
		</node>
		<node id="1513713064" x="-112.0542333" y="33.4508733" >
		</node>
		<node id="1513713065" x="-112.0520654" y="33.45088" >
		</node>
		<node id="1513713074" x="-112.05530980000002" y="33.4513614" >
		</node>
		<node id="1513713098" x="-112.05330499999998" y="33.4526902" >
		</node>
		<node id="1513713099" x="-112.05276669999999" y="33.4526952" >
		</node>
		<node id="1513713102" x="-112.0553651" y="33.4529105" >
		</node>
		<node id="1513713103" x="-112.05418680000001" y="33.4529156" >
		</node>
		<node id="1513713113" x="-112.05538679999998" y="33.4538539" >
		</node>
		<node id="1513713115" x="-112.05333159999999" y="33.4539041" >
		</node>
		<node id="1513713116" x="-112.05273220000001" y="33.4539615" >
		</node>
		<node id="1513713151" x="-112.07060670000001" y="33.4565938" >
		</node>
		<node id="1513713160" x="-112.06208649999999" y="33.4572455" >
		</node>
		<node id="1513713162" x="-112.0589631" y="33.4572489" >
		</node>
		<node id="1513713163" x="-112.0543624" y="33.4572523" >
		</node>
		<node id="1513713164" x="-112.05645220000001" y="33.457255700000005" >
		</node>
		<node id="1513713165" x="-112.06068459999999" y="33.4572591" >
		</node>
		<node id="1513713168" x="-112.0628613" y="33.457533" >
		</node>
		<node id="1513713174" x="-112.0543411" y="33.4581879" >
		</node>
		<node id="1513713175" x="-112.06208649999999" y="33.4582048" >
		</node>
		<node id="1513713176" x="-112.0606791" y="33.4582049" >
		</node>
		<node id="1513713177" x="-112.0564494" y="33.458215" >
		</node>
		<node id="1513713179" x="-112.0589499" y="33.4582184" >
		</node>
		<node id="1513713187" x="-112.0628613" y="33.4586843" >
		</node>
		<node id="1513713205" x="-112.0802055" y="33.4591808" >
		</node>
		<node id="1513713206" x="-112.0777939" y="33.4591804" >
		</node>
		<node id="1513713212" x="-112.0826486" y="33.4591817" >
		</node>
		<node id="1513713215" x="-112.0777873" y="33.4601826" >
		</node>
		<node id="1513713217" x="-112.0801793" y="33.46019" >
		</node>
		<node id="1513713219" x="-112.0822012" y="33.46022" >
		</node>
		<node id="1515590388" x="-112.07393959999999" y="33.4610361" >
		</node>
		<node id="1515772681" x="-112.0958372" y="33.4476269" >
		</node>
		<node id="1515772906" x="-112.07369540000002" y="33.4724064" >
		</node>
		<node id="1515773025" x="-112.07369209999999" y="33.5080265" >
		</node>
		<node id="1515869390" x="-112.07513840000001" y="33.4498581" >
		</node>
		<node id="1515869398" x="-112.0764312" y="33.4498564" >
		</node>
		<node id="1515869463" x="-112.0777168" y="33.4557604" >
		</node>
		<node id="1515869470" x="-112.07832259999999" y="33.4567087" >
		</node>
		<node id="1515869478" x="-112.07728749999998" y="33.4586519" >
		</node>
		<node id="1515869481" x="-112.0783429" y="33.458657" >
		</node>
		<node id="1515869489" x="-112.0764196" y="33.4591595" >
		</node>
		<node id="1515869496" x="-112.07538949999999" y="33.4591667" >
		</node>
		<node id="1515869499" x="-112.07731639999999" y="33.4592702" >
		</node>
		<node id="1515869503" x="-112.0764284" y="33.4598208" >
		</node>
		<node id="1515869506" x="-112.0773221" y="33.4598351" >
		</node>
		<node id="1516023457" x="-112.0737126" y="33.4618846" >
		</node>
		<node id="1516023458" x="-112.0739675" y="33.4618888" >
		</node>
		<node id="1526052761" x="-112.07391250000002" y="33.4896552" >
		</node>
		<node id="1526052766" x="-112.0736974" y="33.4896745" >
		</node>
		<node id="1526072498" x="-112.0738239" y="33.4493262" >
		</node>
		<node id="1526072501" x="-112.0589804" y="33.4498369" >
		</node>
		<node id="1526072514" x="-112.05476249999998" y="33.4513702" >
		</node>
		<node id="1526072530" x="-112.0739601" y="33.4657208" >
		</node>
		<node id="1527613429" x="-112.0737133" y="33.483884" >
		</node>
		<node id="1527613664" x="-112.06506590000001" y="33.4865131" >
		</node>
		<node id="1556606454" x="-112.08256200000001" y="33.4470999" >
		</node>
		<node id="1556606509" x="-111.9872329" y="33.4480173" >
		</node>
		<node id="1556606520" x="-112.0074326" y="33.4480634" >
		</node>
		<node id="1556606555" x="-112.0892451" y="33.4481721" >
		</node>
		<node id="1556606573" x="-112.0881308" y="33.4481867" >
		</node>
		<node id="1556606575" x="-112.07383399999999" y="33.4481963" >
		</node>
		<node id="1556606580" x="-112.0836843" y="33.4482019" >
		</node>
		<node id="1556606581" x="-112.0859048" y="33.4481996" >
		</node>
		<node id="1556606584" x="-112.0825725" y="33.4482238" >
		</node>
		<node id="1556606597" x="-112.07895950000001" y="33.4482345" >
		</node>
		<node id="1556606602" x="-112.06995440000001" y="33.4482395" >
		</node>
		<node id="1556606607" x="-112.0777089" y="33.4482418" >
		</node>
		<node id="1556606613" x="-112.0074478" y="33.4482458" >
		</node>
		<node id="1556606631" x="-111.987233" y="33.4483047" >
		</node>
		<node id="1556606634" x="-112.05643490000001" y="33.4483148" >
		</node>
		<node id="1556606637" x="-112.0301861" y="33.4483164" >
		</node>
		<node id="1556606650" x="-112.0477799" y="33.4483584" >
		</node>
		<node id="1556659505" x="-112.0706039" y="33.4576267" >
		</node>
		<node id="156226219" x="-112.0188485" y="33.461783600000004" >
		</node>
		<node id="156226232" x="-112.00625989999999" y="33.4590201" >
		</node>
		<node id="1576942949" x="-112.07318910000001" y="33.4591423" >
		</node>
		<node id="1576942952" x="-112.07321150000001" y="33.4591423" >
		</node>
		<node id="1576942960" x="-112.07380080000001" y="33.4591512" >
		</node>
		<node id="1576943004" x="-112.0727867" y="33.4595031" >
		</node>
		<node id="1576943009" x="-112.07256500000001" y="33.4595093" >
		</node>
		<node id="1576943011" x="-112.0732123" y="33.4595128" >
		</node>
		<node id="1576943013" x="-112.0736684" y="33.4596167" >
		</node>
		<node id="1576943014" x="-112.0732125" y="33.4596174" >
		</node>
		<node id="1576943019" x="-112.072758" y="33.4597006" >
		</node>
		<node id="1576943021" x="-112.0732127" y="33.4597037" >
		</node>
		<node id="1576943022" x="-112.07275980000001" y="33.4598401" >
		</node>
		<node id="1576943024" x="-112.073213" y="33.4598416" >
		</node>
		<node id="1576943028" x="-112.0741813" y="33.4599953" >
		</node>
		<node id="1576943029" x="-112.07467190000001" y="33.4600243" >
		</node>
		<node id="1576943032" x="-112.0749253" y="33.4600271" >
		</node>
		<node id="1576943105" x="-112.07392790000002" y="33.4601746" >
		</node>
		<node id="1576943115" x="-112.074002" y="33.4601756" >
		</node>
		<node id="1576943178" x="-112.0739206" y="33.4605405" >
		</node>
		<node id="1576943179" x="-112.07404020000001" y="33.4605445" >
		</node>
		<node id="1576943186" x="-112.0746954" y="33.4605602" >
		</node>
		<node id="1579183092" x="-112.0746615" y="33.4503762" >
		</node>
		<node id="1579183094" x="-112.0746615" y="33.4504802" >
		</node>
		<node id="1583488468" x="-112.0751436" y="33.46067510000001" >
		</node>
		<node id="1583488469" x="-112.075058" y="33.46067670000001" >
		</node>
		<node id="1583488470" x="-112.07487030000001" y="33.4606802" >
		</node>
		<node id="1583488471" x="-112.0739196" y="33.4606927" >
		</node>
		<node id="1584636912" x="-112.0699529" y="33.4621454" >
		</node>
		<node id="1604510837" x="-112.07525850000002" y="33.4482576" >
		</node>
		<node id="1604510842" x="-112.0752643" y="33.448415" >
		</node>
		<node id="1604510846" x="-112.0751083" y="33.448858" >
		</node>
		<node id="1604510855" x="-112.0752683" y="33.4489193" >
		</node>
		<node id="1604510861" x="-112.0753133" y="33.4490122" >
		</node>
		<node id="1604510871" x="-112.07617220000002" y="33.4504839" >
		</node>
		<node id="1604510872" x="-112.0759594" y="33.4504843" >
		</node>
		<node id="1604510873" x="-112.0764375" y="33.4506323" >
		</node>
		<node id="1604510876" x="-112.07671830000001" y="33.450634" >
		</node>
		<node id="1604510879" x="-112.07643760000002" y="33.4506857" >
		</node>
		<node id="1604510885" x="-112.07596040000003" y="33.45069" >
		</node>
		<node id="1604510893" x="-112.0777198" y="33.4509705" >
		</node>
		<node id="1604510895" x="-112.0775624" y="33.4509711" >
		</node>
		<node id="1604510898" x="-112.07617519999998" y="33.451101" >
		</node>
		<node id="1604510900" x="-112.0759624" y="33.4511028" >
		</node>
		<node id="1604510901" x="-112.07617600000002" y="33.4512719" >
		</node>
		<node id="1604510904" x="-112.07596330000001" y="33.4512723" >
		</node>
		<node id="1604510972" x="-112.0715474" y="33.455675" >
		</node>
		<node id="1604510973" x="-112.0712679" y="33.4558491" >
		</node>
		<node id="1604510980" x="-112.0715469" y="33.4558497" >
		</node>
		<node id="1604510983" x="-112.07154640000003" y="33.4560023" >
		</node>
		<node id="1604510985" x="-112.0719236" y="33.4560031" >
		</node>
		<node id="1604510987" x="-112.0714733" y="33.4561316" >
		</node>
		<node id="1604510988" x="-112.0719259" y="33.4561354" >
		</node>
		<node id="1604510989" x="-112.07236799999998" y="33.4561391" >
		</node>
		<node id="1604510994" x="-112.0714715" y="33.4562758" >
		</node>
		<node id="1604510996" x="-112.0719256" y="33.4562797" >
		</node>
		<node id="1604510998" x="-112.0723663" y="33.4562834" >
		</node>